-- Этот файл был сгенерирован тНавигатор v23.3-4280-ged8ebf643115.
-- Copyright (C) Рок Флоу Динамикс 2005-2023.
-- Все права защищены.

-- Model name: 
-- DynamicModel

-- Project: 
-- C:/Users/KosachevIV/Desktop/tNavTests/Original/Киабейское.snp


RUNSPEC

TNAVCTRL
 LONGNAMES           YES /
 E1_E3_BINARY_EXPORT ON  /
/


TITLE
DYNAMICMODEL

START
 01 DEC 2023 /


OIL


WATER


GAS


DISGAS


METRIC


ENDSCALE
 /


DIMENS
 69 50 75 /


TABDIMS
 1 1 50 50 1* 15 6* 1 /


WELLDIMS
 21 150 1 21 /

EQLDIMS
 1 1* 2 /


VFPPDIMS
 20 20 20 20 1 1 /

SMRYDIMS
 513 /


UNIFOUT


GRID
INCLUDE
'INCLUDE/DynamicModel_GRID.inc' /


EDIT
INCLUDE
'INCLUDE/DynamicModel_EDIT.inc' /


PROPS
INCLUDE
'INCLUDE/DynamicModel_PROPS.inc' /


REGIONS
INCLUDE
'INCLUDE/DynamicModel_REGIONS.inc' /


SOLUTION
INCLUDE
'INCLUDE/DynamicModel_SOLUTION.inc' /


SUMMARY
INCLUDE
'INCLUDE/DynamicModel_SUMMARY.inc' /


SCHEDULE
INCLUDE
'INCLUDE/DynamicModel_SCHEDULE.inc' /

