-- Этот файл был сгенерирован тНавигатор v24.2-3498-g34c7c60ee388.
-- Copyright (C) Рок Флоу Динамикс 2005-2024.
-- Все права защищены.

-- Model name: 
-- DynamicModel

-- Project: 
-- C:/Users/kosacheviv/Desktop/model_by_Antonov/model_dm/dg_new.snp


RUNSPEC

TNAVCTRL
 LONGNAMES           YES /
 E1_E3_BINARY_EXPORT ON  /
/


TITLE
DYNAMICMODEL

START
 01 DEC 2023 /


OIL


WATER


GAS


DISGAS


METRIC


ENDSCALE
 /


DIMENS
 69 50 75 /


TABDIMS
 1 1 50 50 1* 21 6* 1 /


WELLDIMS
 21 150 1 21 /

EQLDIMS
 1 1* 2 /


VFPPDIMS
 25 111 219 219 1 2 /

SMRYDIMS
 513 /


UNIFOUT


GRID
INCLUDE
'INCLUDE/DYNAMICMODEL_GRID.inc' /


EDIT
INCLUDE
'INCLUDE/DYNAMICMODEL_EDIT.inc' /


PROPS
INCLUDE
'INCLUDE/DYNAMICMODEL_PROPS.inc' /


REGIONS
INCLUDE
'INCLUDE/DYNAMICMODEL_REGIONS.inc' /


SOLUTION
INCLUDE
'INCLUDE/DYNAMICMODEL_SOLUTION.inc' /


SUMMARY
INCLUDE
'INCLUDE/DYNAMICMODEL_SUMMARY.inc' /


SCHEDULE
INCLUDE
'INCLUDE/DYNAMICMODEL_SCHEDULE.inc' /

