-- Этот файл был сгенерирован тНавигатор v23.3-4280-ged8ebf643115.
-- Copyright (C) Рок Флоу Динамикс 2005-2023.
-- Все права защищены.

-- Model name: 
-- DynamicModel

-- Project: 
-- C:/Users/kosacheviv/Desktop/Хахасия/Для практики.snp


RUNSPEC

TNAVCTRL
 LONGNAMES           YES /
 E1_E3_BINARY_EXPORT ON  /
/


TITLE
DYNAMICMODEL

START
 01 JAN 2024 /


OIL


WATER


DISGAS


METRIC


ENDSCALE
 /


DIMENS
 25 25 11 /


TABDIMS
 1 1 50 50 1* 8 6* 1 /


WELLDIMS
 6 11 1 6 /

EQLDIMS
 1 1* 2 /


SMRYDIMS
 183 /


UNIFOUT


GRID
INCLUDE
'INCLUDE/DynamicModel_GRID.inc' /


EDIT
INCLUDE
'INCLUDE/DynamicModel_EDIT.inc' /


PROPS
INCLUDE
'INCLUDE/DynamicModel_PROPS.inc' /


REGIONS
INCLUDE
'INCLUDE/DynamicModel_REGIONS.inc' /


SOLUTION
INCLUDE
'INCLUDE/DynamicModel_SOLUTION.inc' /


SUMMARY
INCLUDE
'INCLUDE/DynamicModel_SUMMARY.inc' /


SCHEDULE
INCLUDE
'INCLUDE/DynamicModel_SCHEDULE.inc' /

